/*--------------------------------*- C++ -*----------------------------------*\
  =========                 |
  \\      /  F ield         | OpenFOAM: The Open Source CFD Toolbox
   \\    /   O peration     | Website:  https://openfoam.org
    \\  /    A nd           | Version:  7
     \\/     M anipulation  |
\*---------------------------------------------------------------------------*/
FoamFile
{
    version     2.0;
    format      ascii;
    class       volScalarField;
    object      p_rgh;
}
// * * * * * * * * * * * * * * * * * * * * * * * * * * * * * * * * * * * * * //

dimensions      [0 2 -2 0 0 0 0];

internalField   uniform {{ p_rgh }};

boundaryField
{

    "room_wall_.*"
    {
        type            calculated;
        value           $internalField;
    }

    "raised_floor_.*"
    {
        type            calculated;
        value           $internalField;
    }

    "opening_raised_floor_.*"
    {
        type           cyclic;
    }

    "false_ceiling_.*"
    {
        type            calculated;
        value           $internalField;
    }

    "opening_false_ceiling_.*"
    {
        type            cyclic;
    }

    "rack_cyclic_.*"
    {
        type            cyclic;
    }

    "rack_air_leak_.*"
    {
        type           porousBafflePressure;
        patchType      cyclic;
        D              1000;
        I              500;
        length         0.15;
        uniformJump    false;
        jump           uniform 0;
        value          uniform 0;
    }

    "box_.*"
    {
        type            calculated;
        value           $internalField;
    }

    "opening_box_.*"
    {
        type           cyclic;
    }

    "rack_wall_.*"
    {
        type            calculated;
        value           $internalField;
    }

    "acu_wall_.*"
	{
        type            calculated;
        value           $internalField;
	}

    "acu_supply_.*"
	{
        type            calculated;
        value           $internalField;
	}

	"acu_return_.*"
	{
	    type            totalPressure;
	    rho             rho;
	    psi             none;
	    gamma           1;
	    p0              uniform 0;
	    value           uniform 0;
	}

    "heat_emitting_box_wall_.*"
	{
        type            calculated;
        value           $internalField;
	}

    "heat_emitting_box_supply_.*"
	{
        type            calculated;
        value           $internalField;
	}

    "heat_emitting_box_return_.*"
	{
	    type            totalPressure;
	    rho             rho;
	    psi             none;
	    gamma           1;
	    p0              uniform 0;
	    value           uniform 0;
	}

	"server_inlet_.*"
	{
	    type            totalPressure;
	    rho             rho;
	    psi             none;
	    gamma           1;
	    p0              uniform 0;
	    value           uniform 0;
	}

	"server_outlet_.*"
	{
        type            calculated;
        value           $internalField;
	}

}

// ************************************************************************* //
