  Version,9.5;

  LifeCycleCost:Parameters,
    {fee39b9a-3111-4307-8a37-50de97c60aeb},  !- Name
    EndOfYear,               !- Discounting Convention
    ConstantDollar,          !- Inflation Approach
    0.03,                    !- Real Discount Rate
    ,                        !- Nominal Discount Rate
    ,                        !- Inflation
    ,                        !- Base Date Month
    2011,                    !- Base Date Year
    ,                        !- Service Date Month
    2011,                    !- Service Date Year
    25,                      !- Length of Study Period in Years
    ,                        !- Tax rate
    None;                    !- Depreciation Method

  LifeCycleCost:UsePriceEscalation,
    U.S. Avg  Commercial-Electricity,  !- LCC Price Escalation Name
    Electricity,             !- Resource
    2011,                    !- Escalation Start Year
    January,                 !- Escalation Start Month
    0.9838,                  !- Year 1 Escalation
    0.9730,                  !- Year 2 Escalation
    0.9632,                  !- Year 3 Escalation
    0.9611,                  !- Year 4 Escalation
    0.9571,                  !- Year 5 Escalation
    0.9553,                  !- Year 6 Escalation
    0.9539,                  !- Year 7 Escalation
    0.9521,                  !- Year 8 Escalation
    0.9546,                  !- Year 9 Escalation
    0.9550,                  !- <none>
    0.9553,                  !- <none>
    0.9564,                  !- <none>
    0.9575,                  !- <none>
    0.9596,                  !- <none>
    0.9618,                  !- <none>
    0.9614,                  !- <none>
    0.9618,                  !- <none>
    0.9618,                  !- <none>
    0.9593,                  !- <none>
    0.9589,                  !- <none>
    0.9607,                  !- <none>
    0.9625,                  !- <none>
    0.9650,                  !- <none>
    0.9708,                  !- <none>
    0.9751,                  !- <none>
    0.9762,                  !- <none>
    0.9766,                  !- <none>
    0.9766,                  !- <none>
    0.9769,                  !- <none>
    0.9773;                  !- <none>

  LifeCycleCost:UsePriceEscalation,
    U.S. Avg  Commercial-Distillate Oil,  !- LCC Price Escalation Name
    FuelOilNo1,              !- Resource
    2011,                    !- Escalation Start Year
    January,                 !- Escalation Start Month
    0.9714,                  !- Year 1 Escalation
    0.9730,                  !- Year 2 Escalation
    0.9942,                  !- Year 3 Escalation
    1.0164,                  !- Year 4 Escalation
    1.0541,                  !- Year 5 Escalation
    1.0928,                  !- Year 6 Escalation
    1.1267,                  !- Year 7 Escalation
    1.1580,                  !- Year 8 Escalation
    1.1792,                  !- Year 9 Escalation
    1.1967,                  !- <none>
    1.2200,                  !- <none>
    1.2333,                  !- <none>
    1.2566,                  !- <none>
    1.2709,                  !- <none>
    1.2826,                  !- <none>
    1.2985,                  !- <none>
    1.3102,                  !- <none>
    1.3250,                  !- <none>
    1.3261,                  !- <none>
    1.3282,                  !- <none>
    1.3324,                  !- <none>
    1.3356,                  !- <none>
    1.3431,                  !- <none>
    1.3510,                  !- <none>
    1.3568,                  !- <none>
    1.3606,                  !- <none>
    1.3637,                  !- <none>
    1.3674,                  !- <none>
    1.3706,                  !- <none>
    1.3743;                  !- <none>

  LifeCycleCost:UsePriceEscalation,
    U.S. Avg  Commercial-Residual Oil,  !- LCC Price Escalation Name
    FuelOilNo2,              !- Resource
    2011,                    !- Escalation Start Year
    January,                 !- Escalation Start Month
    0.8469,                  !- Year 1 Escalation
    0.8257,                  !- Year 2 Escalation
    0.8681,                  !- Year 3 Escalation
    0.8988,                  !- Year 4 Escalation
    0.9289,                  !- Year 5 Escalation
    0.9604,                  !- Year 6 Escalation
    0.9897,                  !- Year 7 Escalation
    1.0075,                  !- Year 8 Escalation
    1.0314,                  !- Year 9 Escalation
    1.0554,                  !- <none>
    1.0861,                  !- <none>
    1.1278,                  !- <none>
    1.1497,                  !- <none>
    1.1620,                  !- <none>
    1.1743,                  !- <none>
    1.1852,                  !- <none>
    1.1948,                  !- <none>
    1.2037,                  !- <none>
    1.2071,                  !- <none>
    1.2119,                  !- <none>
    1.2139,                  !- <none>
    1.2194,                  !- <none>
    1.2276,                  !- <none>
    1.2365,                  !- <none>
    1.2420,                  !- <none>
    1.2461,                  !- <none>
    1.2509,                  !- <none>
    1.2550,                  !- <none>
    1.2591,                  !- <none>
    1.2638;                  !- <none>

  LifeCycleCost:UsePriceEscalation,
    U.S. Avg  Commercial-Natural gas,  !- LCC Price Escalation Name
    NaturalGas,              !- Resource
    2011,                    !- Escalation Start Year
    January,                 !- Escalation Start Month
    0.9823,                  !- Year 1 Escalation
    0.9557,                  !- Year 2 Escalation
    0.9279,                  !- Year 3 Escalation
    0.9257,                  !- Year 4 Escalation
    0.9346,                  !- Year 5 Escalation
    0.9412,                  !- Year 6 Escalation
    0.9512,                  !- Year 7 Escalation
    0.9645,                  !- Year 8 Escalation
    0.9856,                  !- Year 9 Escalation
    1.0067,                  !- <none>
    1.0222,                  !- <none>
    1.0410,                  !- <none>
    1.0610,                  !- <none>
    1.0787,                  !- <none>
    1.0942,                  !- <none>
    1.1098,                  !- <none>
    1.1220,                  !- <none>
    1.1308,                  !- <none>
    1.1386,                  !- <none>
    1.1486,                  !- <none>
    1.1619,                  !- <none>
    1.1763,                  !- <none>
    1.1918,                  !- <none>
    1.2118,                  !- <none>
    1.2284,                  !- <none>
    1.2439,                  !- <none>
    1.2605,                  !- <none>
    1.2772,                  !- <none>
    1.2938,                  !- <none>
    1.3115;                  !- <none>

  LifeCycleCost:UsePriceEscalation,
    U.S. Avg  Commercial-Coal,  !- LCC Price Escalation Name
    Coal,                    !- Resource
    2011,                    !- Escalation Start Year
    January,                 !- Escalation Start Month
    0.9970,                  !- Year 1 Escalation
    1.0089,                  !- Year 2 Escalation
    1.0089,                  !- Year 3 Escalation
    0.9941,                  !- Year 4 Escalation
    0.9941,                  !- Year 5 Escalation
    1.0000,                  !- Year 6 Escalation
    1.0030,                  !- Year 7 Escalation
    1.0059,                  !- Year 8 Escalation
    1.0089,                  !- Year 9 Escalation
    1.0119,                  !- <none>
    1.0148,                  !- <none>
    1.0178,                  !- <none>
    1.0208,                  !- <none>
    1.0267,                  !- <none>
    1.0297,                  !- <none>
    1.0356,                  !- <none>
    1.0415,                  !- <none>
    1.0534,                  !- <none>
    1.0564,                  !- <none>
    1.0593,                  !- <none>
    1.0653,                  !- <none>
    1.0712,                  !- <none>
    1.0742,                  !- <none>
    1.0801,                  !- <none>
    1.0831,                  !- <none>
    1.0831,                  !- <none>
    1.0861,                  !- <none>
    1.0890,                  !- <none>
    1.0920,                  !- <none>
    1.0950;                  !- <none>

  Building,
    Building 1,              !- Name
    ,                        !- North Axis {deg}
    ,                        !- Terrain
    ,                        !- Loads Convergence Tolerance Value {W}
    ,                        !- Temperature Convergence Tolerance Value {deltaC}
    ,                        !- Solar Distribution
    ,                        !- Maximum Number of Warmup Days
    ;                        !- Minimum Number of Warmup Days

  Zone,
    TZ Acc 1,                !- Name
    -0,                      !- Direction of Relative North {deg}
    125,                     !- X Origin {m}
    0,                       !- Y Origin {m}
    0,                       !- Z Origin {m}
    ,                        !- Type
    ,                        !- Multiplier
    ,                        !- Ceiling Height {m}
    ,                        !- Volume {m3}
    ,                        !- Floor Area {m2}
    ,                        !- Zone Inside Convection Algorithm
    ;                        !- Zone Outside Convection Algorithm

  BuildingSurface:Detailed,
    Surface 31,              !- Name
    Floor,                   !- Surface Type
    ExtSlabCarpet 4in ClimateZone 1-8,  !- Construction Name
    TZ Acc 1,                !- Zone Name
    Ground,                  !- Outside Boundary Condition
    ,                        !- Outside Boundary Condition Object
    NoSun,                   !- Sun Exposure
    NoWind,                  !- Wind Exposure
    ,                        !- View Factor to Ground
    ,                        !- Number of Vertices
    20,20,0,  !- X,Y,Z ==> Vertex 1 {m}
    20,0,0,  !- X,Y,Z ==> Vertex 2 {m}
    0,0,0,  !- X,Y,Z ==> Vertex 3 {m}
    0,20,0;  !- X,Y,Z ==> Vertex 4 {m}

  BuildingSurface:Detailed,
    Surface 32,              !- Name
    Wall,                    !- Surface Type
    ASHRAE 189.1-2009 ExtWall Mass ClimateZone 5,  !- Construction Name
    TZ Acc 1,                !- Zone Name
    Outdoors,                !- Outside Boundary Condition
    ,                        !- Outside Boundary Condition Object
    SunExposed,              !- Sun Exposure
    WindExposed,             !- Wind Exposure
    ,                        !- View Factor to Ground
    ,                        !- Number of Vertices
    0,20,4,  !- X,Y,Z ==> Vertex 1 {m}
    0,20,0,  !- X,Y,Z ==> Vertex 2 {m}
    0,0,0,  !- X,Y,Z ==> Vertex 3 {m}
    0,0,4;  !- X,Y,Z ==> Vertex 4 {m}

  BuildingSurface:Detailed,
    Surface 33,              !- Name
    Wall,                    !- Surface Type
    ASHRAE 189.1-2009 ExtWall Mass ClimateZone 5,  !- Construction Name
    TZ Acc 1,                !- Zone Name
    Outdoors,                !- Outside Boundary Condition
    ,                        !- Outside Boundary Condition Object
    SunExposed,              !- Sun Exposure
    WindExposed,             !- Wind Exposure
    ,                        !- View Factor to Ground
    ,                        !- Number of Vertices
    20,0,4,  !- X,Y,Z ==> Vertex 1 {m}
    20,0,0,  !- X,Y,Z ==> Vertex 2 {m}
    20,20,0,  !- X,Y,Z ==> Vertex 3 {m}
    20,20,4;  !- X,Y,Z ==> Vertex 4 {m}

  BuildingSurface:Detailed,
    Surface 34,              !- Name
    Wall,                    !- Surface Type
    ASHRAE 189.1-2009 ExtWall Mass ClimateZone 5,  !- Construction Name
    TZ Acc 1,                !- Zone Name
    Outdoors,                !- Outside Boundary Condition
    ,                        !- Outside Boundary Condition Object
    SunExposed,              !- Sun Exposure
    WindExposed,             !- Wind Exposure
    ,                        !- View Factor to Ground
    ,                        !- Number of Vertices
    20,20,4,  !- X,Y,Z ==> Vertex 1 {m}
    20,20,0,  !- X,Y,Z ==> Vertex 2 {m}
    0,20,0,  !- X,Y,Z ==> Vertex 3 {m}
    0,20,4;  !- X,Y,Z ==> Vertex 4 {m}

  BuildingSurface:Detailed,
    Surface 35,              !- Name
    Wall,                    !- Surface Type
    ASHRAE 189.1-2009 ExtWall Mass ClimateZone 5,  !- Construction Name
    TZ Acc 1,                !- Zone Name
    Outdoors,                !- Outside Boundary Condition
    ,                        !- Outside Boundary Condition Object
    SunExposed,              !- Sun Exposure
    WindExposed,             !- Wind Exposure
    ,                        !- View Factor to Ground
    ,                        !- Number of Vertices
    0,0,4,  !- X,Y,Z ==> Vertex 1 {m}
    0,0,0,  !- X,Y,Z ==> Vertex 2 {m}
    20,0,0,  !- X,Y,Z ==> Vertex 3 {m}
    20,0,4;  !- X,Y,Z ==> Vertex 4 {m}

  BuildingSurface:Detailed,
    Surface 36,              !- Name
    Roof,                    !- Surface Type
    ASHRAE 189.1-2009 ExtRoof IEAD ClimateZone 2-5,  !- Construction Name
    TZ Acc 1,                !- Zone Name
    Outdoors,                !- Outside Boundary Condition
    ,                        !- Outside Boundary Condition Object
    SunExposed,              !- Sun Exposure
    WindExposed,             !- Wind Exposure
    ,                        !- View Factor to Ground
    ,                        !- Number of Vertices
    20,0,4,  !- X,Y,Z ==> Vertex 1 {m}
    20,20,4,  !- X,Y,Z ==> Vertex 2 {m}
    0,20,4,  !- X,Y,Z ==> Vertex 3 {m}
    0,0,4;  !- X,Y,Z ==> Vertex 4 {m}

  ZoneControl:Thermostat,
    TZ Acc 1 Thermostat,     !- Name
    TZ Acc 1,                !- Zone or ZoneList Name
    TZ Acc 1 Thermostat Schedule,  !- Control Type Schedule Name
    ThermostatSetpoint:DualSetpoint,  !- Control 1 Object Type
    Thermostat Setpoint Dual Setpoint 6;  !- Control 1 Name

  Schedule:Compact,
    TZ Acc 1 Thermostat Schedule,  !- Name
    TZ Acc 1 Thermostat Schedule Type Limits,  !- Schedule Type Limits Name
    Through: 12/31,          !- Field 1
    For: AllDays,            !- Field 2
    Until: 24:00,4;          !- Field 3

  ScheduleTypeLimits,
    TZ Acc 1 Thermostat Schedule Type Limits,  !- Name
    0,                       !- Lower Limit Value
    4,                       !- Upper Limit Value
    DISCRETE;                !- Numeric Type

  ThermostatSetpoint:DualSetpoint,
    Thermostat Setpoint Dual Setpoint 6,  !- Name
    DC HtgSetp,              !- Heating Setpoint Temperature Schedule Name
    DC ClgSetp;              !- Cooling Setpoint Temperature Schedule Name

  ScheduleTypeLimits,
    Temperature 3,           !- Name
    ,                        !- Lower Limit Value
    ,                        !- Upper Limit Value
    Continuous,              !- Numeric Type
    temperature;             !- Unit Type

  Schedule:Day:Interval,
    Large_OFF HtgSetp Rule 1 Day Schedule,  !- Name
    Temperature 3,           !- Schedule Type Limits Name
    No,                      !- Interpolate to Timestep
    24:00,                   !- Time 1
    15.6;                    !- Value Until Time 1

  Schedule:Day:Interval,
    Large_OFF HtgSetp Default Schedule,  !- Name
    Temperature 3,           !- Schedule Type Limits Name
    No,                      !- Interpolate to Timestep
    24:00,                   !- Time 1
    15;                      !- Value Until Time 1

  Schedule:Day:Interval,
    Large_OFF HtgSetp Rule 2 Day Schedule,  !- Name
    Temperature 3,           !- Schedule Type Limits Name
    No,                      !- Interpolate to Timestep
    24:00,                   !- Time 1
    15;                      !- Value Until Time 1

  Schedule:Week:Daily,
    Schedule:Week:Daily {473ed456-c61e-449d-943e-6295a9119c3d},  !- Name
    Large_OFF HtgSetp Rule 1 Day Schedule,  !- Sunday Schedule:Day Name
    Large_OFF HtgSetp Default Schedule,  !- Monday Schedule:Day Name
    Large_OFF HtgSetp Default Schedule,  !- Tuesday Schedule:Day Name
    Large_OFF HtgSetp Default Schedule,  !- Wednesday Schedule:Day Name
    Large_OFF HtgSetp Default Schedule,  !- Thursday Schedule:Day Name
    Large_OFF HtgSetp Default Schedule,  !- Friday Schedule:Day Name
    Large_OFF HtgSetp Rule 2 Day Schedule,  !- Saturday Schedule:Day Name
    Large_OFF HtgSetp Default Schedule,  !- Holiday Schedule:Day Name
    Large_OFF HtgSetp Summer Design Day,  !- SummerDesignDay Schedule:Day Name
    Large_OFF HtgSetp Winter Design Day,  !- WinterDesignDay Schedule:Day Name
    Large_OFF HtgSetp Default Schedule,  !- CustomDay1 Schedule:Day Name
    Large_OFF HtgSetp Default Schedule;  !- CustomDay2 Schedule:Day Name

  Schedule:Year,
    DC HtgSetp,              !- Name
    Temperature 3,           !- Schedule Type Limits Name
    Schedule:Week:Daily {473ed456-c61e-449d-943e-6295a9119c3d},  !- Schedule:Week Name 1
    1,                       !- Start Month 1
    1,                       !- Start Day 1
    12,                      !- End Month 1
    31;                      !- End Day 1

  Schedule:Day:Interval,
    Large_OFF HtgSetp Summer Design Day,  !- Name
    Temperature 3,           !- Schedule Type Limits Name
    No,                      !- Interpolate to Timestep
    24:00,                   !- Time 1
    15;                      !- Value Until Time 1

  Schedule:Day:Interval,
    Large_OFF HtgSetp Winter Design Day,  !- Name
    Temperature 3,           !- Schedule Type Limits Name
    No,                      !- Interpolate to Timestep
    24:00,                   !- Time 1
    15;                      !- Value Until Time 1

  ScheduleTypeLimits,
    Temperature 5,           !- Name
    ,                        !- Lower Limit Value
    ,                        !- Upper Limit Value
    Continuous,              !- Numeric Type
    temperature;             !- Unit Type

  Schedule:Day:Interval,
    Large_OFF ClgSetp Rule 1 Day Schedule,  !- Name
    Temperature 5,           !- Schedule Type Limits Name
    No,                      !- Interpolate to Timestep
    24:00,                   !- Time 1
    24;                      !- Value Until Time 1

!!!!!!~~~~~~~~ Room temperature setting.

  Schedule:Day:Interval,
    Daily_DC_RAT_setpoint,   !- Name
    Temperature 5,           !- Schedule Type Limits Name
    No,                      !- Interpolate to Timestep
    24:00,                   !- Time 1
    27;                      !- Value Until Time 1

  Schedule:Day:Interval,
    Daily_DC1_RAT_setpoint,  !- Name
    Temperature 5,           !- Schedule Type Limits Name
    No,                      !- Interpolate to Timestep
    24:00,                   !- Time 1
    27;                      !- Value Until Time 1

  Schedule:Day:Interval,
    Daily_DC2_RAT_setpoint,  !- Name
    Temperature 5,           !- Schedule Type Limits Name
    No,                      !- Interpolate to Timestep
    24:00,                   !- Time 1
    27;                      !- Value Until Time 1

  Schedule:Day:Interval,
    Daily_DC3_RAT_setpoint,  !- Name
    Temperature 5,           !- Schedule Type Limits Name
    No,                      !- Interpolate to Timestep
    24:00,                   !- Time 1
    27;                      !- Value Until Time 1

  Schedule:Day:Interval,
    Daily_DC4_RAT_setpoint,  !- Name
    Temperature 5,           !- Schedule Type Limits Name
    No,                      !- Interpolate to Timestep
    24:00,                   !- Time 1
    27;                      !- Value Until Time 1

  Schedule:Day:Interval,
    Daily_DC5_RAT_setpoint,  !- Name
    Temperature 5,           !- Schedule Type Limits Name
    No,                      !- Interpolate to Timestep
    24:00,                   !- Time 1
    27;                      !- Value Until Time 1

  Schedule:Day:Interval,
    Large_OFF ClgSetp Rule 2 Day Schedule,  !- Name
    Temperature 5,           !- Schedule Type Limits Name
    No,                      !- Interpolate to Timestep
    24:00,                   !- Time 1
    24;                      !- Value Until Time 1

  Schedule:Week:Daily,
    Schedule:Week:Daily {DC_RAT_setpoint},  !- Name
    Daily_DC_RAT_setpoint,   !- Sunday Schedule:Day Name
    Daily_DC_RAT_setpoint,   !- Monday Schedule:Day Name
    Daily_DC_RAT_setpoint,   !- Tuesday Schedule:Day Name
    Daily_DC_RAT_setpoint,   !- Wednesday Schedule:Day Name
    Daily_DC_RAT_setpoint,   !- Thursday Schedule:Day Name
    Daily_DC_RAT_setpoint,   !- Friday Schedule:Day Name
    Daily_DC_RAT_setpoint,   !- Saturday Schedule:Day Name
    Daily_DC_RAT_setpoint,   !- Holiday Schedule:Day Name
    Daily_DC_RAT_setpoint,   !- SummerDesignDay Schedule:Day Name
    Daily_DC_RAT_setpoint,   !- WinterDesignDay Schedule:Day Name
    Daily_DC_RAT_setpoint,   !- CustomDay1 Schedule:Day Name
    Daily_DC_RAT_setpoint;   !- CustomDay2 Schedule:Day Name

  Schedule:Week:Daily,
    Schedule:Week:Daily {DC1_RAT_setpoint},  !- Name
    Daily_DC1_RAT_setpoint,  !- Sunday Schedule:Day Name
    Daily_DC1_RAT_setpoint,  !- Monday Schedule:Day Name
    Daily_DC1_RAT_setpoint,  !- Tuesday Schedule:Day Name
    Daily_DC1_RAT_setpoint,  !- Wednesday Schedule:Day Name
    Daily_DC1_RAT_setpoint,  !- Thursday Schedule:Day Name
    Daily_DC1_RAT_setpoint,  !- Friday Schedule:Day Name
    Daily_DC1_RAT_setpoint,  !- Saturday Schedule:Day Name
    Daily_DC1_RAT_setpoint,  !- Holiday Schedule:Day Name
    Daily_DC1_RAT_setpoint,  !- SummerDesignDay Schedule:Day Name
    Daily_DC1_RAT_setpoint,  !- WinterDesignDay Schedule:Day Name
    Daily_DC1_RAT_setpoint,  !- CustomDay1 Schedule:Day Name
    Daily_DC1_RAT_setpoint;  !- CustomDay2 Schedule:Day Name

  Schedule:Week:Daily,
    Schedule:Week:Daily {DC2_RAT_setpoint},  !- Name
    Daily_DC2_RAT_setpoint,  !- Sunday Schedule:Day Name
    Daily_DC2_RAT_setpoint,  !- Monday Schedule:Day Name
    Daily_DC2_RAT_setpoint,  !- Tuesday Schedule:Day Name
    Daily_DC2_RAT_setpoint,  !- Wednesday Schedule:Day Name
    Daily_DC2_RAT_setpoint,  !- Thursday Schedule:Day Name
    Daily_DC2_RAT_setpoint,  !- Friday Schedule:Day Name
    Daily_DC2_RAT_setpoint,  !- Saturday Schedule:Day Name
    Daily_DC2_RAT_setpoint,  !- Holiday Schedule:Day Name
    Daily_DC2_RAT_setpoint,  !- SummerDesignDay Schedule:Day Name
    Daily_DC2_RAT_setpoint,  !- WinterDesignDay Schedule:Day Name
    Daily_DC2_RAT_setpoint,  !- CustomDay1 Schedule:Day Name
    Daily_DC2_RAT_setpoint;  !- CustomDay2 Schedule:Day Name

  Schedule:Week:Daily,
    Schedule:Week:Daily {DC3_RAT_setpoint},  !- Name
    Daily_DC3_RAT_setpoint,  !- Sunday Schedule:Day Name
    Daily_DC3_RAT_setpoint,  !- Monday Schedule:Day Name
    Daily_DC3_RAT_setpoint,  !- Tuesday Schedule:Day Name
    Daily_DC3_RAT_setpoint,  !- Wednesday Schedule:Day Name
    Daily_DC3_RAT_setpoint,  !- Thursday Schedule:Day Name
    Daily_DC3_RAT_setpoint,  !- Friday Schedule:Day Name
    Daily_DC3_RAT_setpoint,  !- Saturday Schedule:Day Name
    Daily_DC3_RAT_setpoint,  !- Holiday Schedule:Day Name
    Daily_DC3_RAT_setpoint,  !- SummerDesignDay Schedule:Day Name
    Daily_DC3_RAT_setpoint,  !- WinterDesignDay Schedule:Day Name
    Daily_DC3_RAT_setpoint,  !- CustomDay1 Schedule:Day Name
    Daily_DC3_RAT_setpoint;  !- CustomDay2 Schedule:Day Name

  Schedule:Week:Daily,
    Schedule:Week:Daily {DC4_RAT_setpoint},  !- Name
    Daily_DC4_RAT_setpoint,  !- Sunday Schedule:Day Name
    Daily_DC4_RAT_setpoint,  !- Monday Schedule:Day Name
    Daily_DC4_RAT_setpoint,  !- Tuesday Schedule:Day Name
    Daily_DC4_RAT_setpoint,  !- Wednesday Schedule:Day Name
    Daily_DC4_RAT_setpoint,  !- Thursday Schedule:Day Name
    Daily_DC4_RAT_setpoint,  !- Friday Schedule:Day Name
    Daily_DC4_RAT_setpoint,  !- Saturday Schedule:Day Name
    Daily_DC4_RAT_setpoint,  !- Holiday Schedule:Day Name
    Daily_DC4_RAT_setpoint,  !- SummerDesignDay Schedule:Day Name
    Daily_DC4_RAT_setpoint,  !- WinterDesignDay Schedule:Day Name
    Daily_DC4_RAT_setpoint,  !- CustomDay1 Schedule:Day Name
    Daily_DC4_RAT_setpoint;  !- CustomDay2 Schedule:Day Name

  Schedule:Week:Daily,
    Schedule:Week:Daily {DC5_RAT_setpoint},  !- Name
    Daily_DC5_RAT_setpoint,  !- Sunday Schedule:Day Name
    Daily_DC5_RAT_setpoint,  !- Monday Schedule:Day Name
    Daily_DC5_RAT_setpoint,  !- Tuesday Schedule:Day Name
    Daily_DC5_RAT_setpoint,  !- Wednesday Schedule:Day Name
    Daily_DC5_RAT_setpoint,  !- Thursday Schedule:Day Name
    Daily_DC5_RAT_setpoint,  !- Friday Schedule:Day Name
    Daily_DC5_RAT_setpoint,  !- Saturday Schedule:Day Name
    Daily_DC5_RAT_setpoint,  !- Holiday Schedule:Day Name
    Daily_DC5_RAT_setpoint,  !- SummerDesignDay Schedule:Day Name
    Daily_DC5_RAT_setpoint,  !- WinterDesignDay Schedule:Day Name
    Daily_DC5_RAT_setpoint,  !- CustomDay1 Schedule:Day Name
    Daily_DC5_RAT_setpoint;  !- CustomDay2 Schedule:Day Name

  Schedule:Year,
    DC ClgSetp,              !- Name
    Temperature 5,           !- Schedule Type Limits Name
    Schedule:Week:Daily {DC_RAT_setpoint},  !- Schedule:Week Name 1
    1,                       !- Start Month 1
    1,                       !- Start Day 1
    12,                      !- End Month 1
    31;                      !- End Day 1

  Schedule:Year,
    DC1 ClgSetp,             !- Name
    Temperature 5,           !- Schedule Type Limits Name
    Schedule:Week:Daily {DC1_RAT_setpoint},  !- Schedule:Week Name 1
    1,                       !- Start Month 1
    1,                       !- Start Day 1
    12,                      !- End Month 1
    31;                      !- End Day 1

  Schedule:Year,
    DC2 ClgSetp,             !- Name
    Temperature 5,           !- Schedule Type Limits Name
    Schedule:Week:Daily {DC2_RAT_setpoint},  !- Schedule:Week Name 1
    1,                       !- Start Month 1
    1,                       !- Start Day 1
    12,                      !- End Month 1
    31;                      !- End Day 1

  Schedule:Year,
    DC3 ClgSetp,             !- Name
    Temperature 5,           !- Schedule Type Limits Name
    Schedule:Week:Daily {DC3_RAT_setpoint},  !- Schedule:Week Name 1
    1,                       !- Start Month 1
    1,                       !- Start Day 1
    12,                      !- End Month 1
    31;                      !- End Day 1

  Schedule:Year,
    DC4 ClgSetp,             !- Name
    Temperature 5,           !- Schedule Type Limits Name
    Schedule:Week:Daily {DC4_RAT_setpoint},  !- Schedule:Week Name 1
    1,                       !- Start Month 1
    1,                       !- Start Day 1
    12,                      !- End Month 1
    31;                      !- End Day 1

  Schedule:Year,
    DC5 ClgSetp,             !- Name
    Temperature 5,           !- Schedule Type Limits Name
    Schedule:Week:Daily {DC5_RAT_setpoint},  !- Schedule:Week Name 1
    1,                       !- Start Month 1
    1,                       !- Start Day 1
    12,                      !- End Month 1
    31;                      !- End Day 1

  Schedule:Day:Interval,
    Large_OFF ClgSetp Summer Design Day,  !- Name
    Temperature 5,           !- Schedule Type Limits Name
    No,                      !- Interpolate to Timestep
    24:00,                   !- Time 1
    24;                      !- Value Until Time 1

  Schedule:Day:Interval,
    Large_OFF ClgSetp Winter Design Day,  !- Name
    Temperature 5,           !- Schedule Type Limits Name
    No,                      !- Interpolate to Timestep
    24:00,                   !- Time 1
    26.7;                    !- Value Until Time 1

  ZoneHVAC:EquipmentConnections,
    TZ Acc 1,                !- Zone Name
    TZ Acc 1 Equipment List, !- Zone Conditioning Equipment List Name
    TZ Acc 1 Inlet Node List,!- Zone Air Inlet Node or NodeList Name
    ,                        !- Zone Air Exhaust Node or NodeList Name
    Node 2,                  !- Zone Air Node Name
    Node RA_accessoires;     !- Zone Return Air Node or NodeList Name

  NodeList,
    TZ Acc 1 Inlet Node List,!- Name
    Node SA_after_diffuser_accessories;  !- Node 1 Name

  ZoneHVAC:AirDistributionUnit,
    ADU VAV_acc,             !- Name
    Node SA_after_diffuser_accessories,  !- Air Distribution Unit Outlet Node Name
    AirTerminal:SingleDuct:VAV:NoReheat,  !- Air Terminal Object Type
    VAV_acc;                 !- Air Terminal Name

  AirTerminal:SingleDuct:VAV:NoReheat,
    VAV_acc,                 !- Name
    Always On Discrete hvac_library,  !- Availability Schedule Name
    Node SA_after_diffuser_accessories,  !- Air Outlet Node Name
    Node SA_before_diffuser_accessories,  !- Air Inlet Node Name
    Autosize,                !- Maximum Air Flow Rate {m3/s}
    Constant,                !- Zone Minimum Air Flow Input Method
    0.3,                     !- Constant Minimum Air Flow Fraction
    0;                       !- Fixed Minimum Air Flow Rate {m3/s}

  Schedule:Constant,Always On Discrete hvac_library,OnOff hvac_library,1;

  ZoneHVAC:EquipmentList,
    TZ Acc 1 Equipment List, !- Name
    SequentialLoad,          !- Load Distribution Scheme
    ZoneHVAC:AirDistributionUnit,  !- Zone Equipment 1 Object Type
    ADU VAV_acc,             !- Zone Equipment 1 Name
    1,                       !- Zone Equipment 1 Cooling Sequence
    1,                       !- Zone Equipment 1 Heating or No-Load Sequence
    ,                        !- Zone Equipment 1 Sequential Cooling Fraction Schedule Name
    ;                        !- Zone Equipment 1 Sequential Heating Fraction Schedule Name

  Sizing:Zone,
    TZ Acc 1,                !- Zone or ZoneList Name
    SupplyAirTemperature,    !- Zone Cooling Design Supply Air Temperature Input Method
    14,                      !- Zone Cooling Design Supply Air Temperature {C}
    11.11,                   !- Zone Cooling Design Supply Air Temperature Difference {deltaC}
    SupplyAirTemperature,    !- Zone Heating Design Supply Air Temperature Input Method