/*--------------------------------*- C++ -*----------------------------------*\
|       o          |                                                          |
|    o     o       | HELYX-OS                                                 |
|   o   O   o      | Version: v2.4.0                                          |
|    o     o       | Web:     http://www.engys.com                            |
|       o          |                                                          |
\*---------------------------------------------------------------------------*/
FoamFile
{
    version 2.0;
    format ascii;
    class dictionary;
    location system;
    object blockMeshDict;
}

scale 1;
vertices
(
    ( {{ v_min.x }} {{ v_min.y }} {{ v_min.z }} )
    ( {{ v_max.x }} {{ v_min.y }} {{ v_min.z }} )
    ( {{ v_max.x }} {{ v_max.y }} {{ v_min.z }} )
    ( {{ v_min.x }} {{ v_max.y }} {{ v_min.z }} )
    ( {{ v_min.x }} {{ v_min.y }} {{ v_max.z }} )
    ( {{ v_max.x }} {{ v_min.y }} {{ v_max.z }} )
    ( {{ v_max.x }} {{ v_max.y }} {{ v_max.z }} )
    ( {{ v_min.x }} {{ v_max.y }} {{ v_max.z }} )
);

blocks
(
    hex
    ( 0 1 2 3 4 5 6 7 )
    ( {{ x_cells }} {{ y_cells }} {{ z_cells }} )
    simpleGrading ( 1 1 1 )
);

edges
();

patches
(
   wall ffminx
   (( 0 4 7 3 )) wall ffmaxx
   (( 1 2 6 5 )) wall ffminy
   (( 0 1 5 4 )) wall ffmaxy
   (( 3 7 6 2 )) wall ffminz
   (( 0 3 2 1 )) wall ffmaxz
   (( 4 5 6 7 ))
);

mergePatchPairs
();
