/*--------------------------------*- C++ -*----------------------------------*\
| =========                 |                                                 |
| \\      /  F ield         | OpenFOAM: The Open Source CFD Toolbox           |
|  \\    /   O peration     | Version:  v1912                                 |
|   \\  /    A nd           | Website:  www.openfoam.com                      |
|    \\/     M anipulation  |                                                 |
\*---------------------------------------------------------------------------*/
FoamFile
{
    version     2.0;
    format      ascii;
    class       dictionary;
    location    "system";
    object      fvSolution;
}
// * * * * * * * * * * * * * * * * * * * * * * * * * * * * * * * * * * * * * //

solvers
{
    p_rgh
    // {
    //     solver          PCG;
    //     preconditioner  DIC;
    //     tolerance       1e-08;
    //     relTol          0.01;
    // }
    {
        solver          petsc;
        preconditioner  petsc;

        petsc
        {
            options
            {
                ksp_type cg;
                ksp_cg_single_reduction true;
                ksp_max_iter "100";
                pc_type bjacobi;
                mat_type mpiaijcusparse;
                vec_type mpicuda;
                // pc_type hypre;
                // pc_hypre_type boomeramg;
                // pc_hypre_boomeramg_max_iter "1";
                // pc_hypre_boomeramg_strong_threshold "0.7";
                // pc_hypre_boomeramg_grid_sweeps_up "1";
                // pc_hypre_boomeramg_grid_sweeps_down "1";
                // pc_hypre_boomeramg_agg_nl "2";
                // pc_hypre_boomeramg_agg_num_paths "1";
                // pc_hypre_boomeramg_max_levels "25";
                // pc_hypre_boomeramg_coarsen_type HMIS;
                // pc_hypre_boomeramg_interp_type ext+i;
                // pc_hypre_boomeramg_P_max "2";
                // pc_hypre_boomeramg_truncfactor "0.2";
            }

            caching
            {
                matrix
                {
                    update always;
                }

                preconditioner
                {
                    update always;
                }
            }
        }
        tolerance       1e-08;
        relTol          0.01;
    }

    "(U|T|k|epsilon)"
    {
        solver          PBiCGStab;
        preconditioner  DILU;
        tolerance       1e-06;
        relTol          0.01;
    }

    cellDisplacement
    {
        $p_rgh;
        relTol          0;
    }
}

SIMPLE
{
    nNonOrthogonalCorrectors 2;
    pRefCell    0;
    pRefValue    0;
    residualControl
    {
        p_rgh           1e-2;
        U               1e-4;
        T               1e-3;

        // possibly check turbulence fields
        "(k|epsilon|omega)" 1e-3;
    }
}

relaxationFactors
{
    fields
    {
        p_rgh           0.7;
    }
    equations
    {
        U               0.2;
        T               0.5;
        "(k|epsilon)"   0.7;
    }
}


// ************************************************************************* //
