/*--------------------------------*- C++ -*----------------------------------*\
|       o          |                                                          |
|    o     o       | HELYX-OS                                                 |
|   o   O   o      | Version: v2.4.0                                          |
|    o     o       | Web:     http://www.engys.com                            |
|       o          |                                                          |
\*---------------------------------------------------------------------------*/
FoamFile
{
    version 2.0;
    format ascii;
    class dictionary;
    location system;
    object snappyHexMeshDict;
}

castellatedMesh on;
snap off;
addLayers off;
geometry
{
    {{ snappy_obj_cmd }}
}

castellatedMeshControls
{
    features
    (
    );
    refinementSurfaces
    {
        {{ refinement_surfaces_cmd }}
    }
    refinementRegions
    {
        {{ refinement_regions_cmd }}
    }

    locationInMesh ( {{ location.x }} {{ location.y }} {{ location.z }} );
    maxLocalCells 8000000;
    maxGlobalCells 24000000;
    minRefinementCells 0;
    nCellsBetweenLevels 1;
    resolveFeatureAngle 30.0;
    allowFreeStandingZoneFaces true;
    planarAngle 30.0;
    maxLoadUnbalance 0.1;
}

snapControls
{
    nSolveIter 30;
    nSmoothPatch 3;
    tolerance 2.0;
    nRelaxIter 5;
    nFeatureSnapIter 10;
    implicitFeatureSnap false;
    explicitFeatureSnap true;
    multiRegionFeatureSnap false;
}

addLayersControls
{
    layers
    {
    }

    relativeSizes true;
    expansionRatio 1.0;
    finalLayerThickness 0.3;
    minThickness 0.25;
    nGrow 0;
    featureAngle 130.0;
    slipFeatureAngle 30.0;
    nRelaxIter 5;
    nSmoothSurfaceNormals 1;
    nSmoothNormals 3;
    nSmoothThickness 10;
    maxFaceThicknessRatio 0.5;
    maxThicknessToMedialRatio 0.3;
    minMedialAxisAngle 90;
    nBufferCellsNoExtrude 0;
    nLayerIter 50;
    nRelaxedIter 20;
    writeVTK false;
    noErrors false;
    layerRecovery 1;
    growZoneLayers false;
    projectGrownUp 0.0;
}

meshQualityControls
{
    maxNonOrtho 60.0;
    maxBoundarySkewness 20;
    maxInternalSkewness 4;
    maxConcave 80.0;
    minFlatness 0.5;
    minVol 1.0E-13;
    minTetQuality 1.0E-15;
    minArea -1.0;
    minTwist 0.02;
    minDeterminant 0.001;
    minFaceWeight 0.05;
    minVolRatio 0.01;
    minTriangleTwist -1.0;
    nSmoothScale 4;
    errorReduction 0.75;
    relaxed
    {
        maxNonOrtho 60;
    }
}

debug 0;
mergeTolerance 1.0E-6;
autoBlockMesh true;
