/*--------------------------------*- C++ -*----------------------------------*\
| =========                 |                                                 |
| \\      /  F ield         | OpenFOAM: The Open Source CFD Toolbox           |
|  \\    /   O peration     | Version:  v1912                                 |
|   \\  /    A nd           | Website:  www.openfoam.com                      |
|    \\/     M anipulation  |                                                 |
\*---------------------------------------------------------------------------*/
FoamFile
{
    version     2.0;
    format      ascii;
    class       dictionary;
    location    "system";
    object      fvSolution;
}
// * * * * * * * * * * * * * * * * * * * * * * * * * * * * * * * * * * * * * //

solvers
{
    p_rgh
    {
        solver          PCG;
        preconditioner  DIC;
        tolerance       1e-8;
        relTol          0.01;
    }
    Phi
    {
	$p_rgh
    }

    p_rghFinal
    {
        $p_rgh;
        relTol          0;
    }

    "(U|T|k|epsilon|R)"
    {
        solver          PBiCGStab;
        preconditioner  DILU;
        tolerance       1e-6;
        relTol          0.01;
    }

    "(U|T|k|epsilon|R)Final"
    {
        $U;
        relTol          0;
    }
}
potentialFlow
{
    nNonOrthogonalCorrectors 10;
}

PIMPLE
{
    momentumPredictor no;
    nOuterCorrectors 1;
    nCorrectors     2;
    nNonOrthogonalCorrectors 2;
    pRefCell    0;
    pRefValue    0;
}

relaxationFactors
{
    fields
    {
        p_rgh           0.7;
		p_rghFinal      0.7;
    }
    equations
    {
        "(U|T|k|epsilon|R)" 0.2;
        "(U|T|k|epsilon|R)Final" 0.5;
    }
}

// ************************************************************************* //
