!- Darwin Line endings 

Version,
    9.5;                      !- Version Identifier

SimulationControl,
    Yes,                      !- Do Zone Sizing Calculation
    Yes,                      !- Do System Sizing Calculation
    Yes,                      !- Do Plant Sizing Calculation
    No,                       !- Run Simulation for Sizing Periods
    Yes,                      !- Run Simulation for Weather File Run Periods
    No,                       !- Do HVAC Sizing Simulation for Sizing Periods
    1;                        !- Maximum Number of HVAC Sizing Simulation Passes

Building,
    Simple One Zone (Wireframe DXF),    !- Name
    0,                        !- North Axis
    Suburbs,                  !- Terrain
    0.04,                     !- Loads Convergence Tolerance Value
    0.004,                    !- Temperature Convergence Tolerance Value
    MinimalShadowing,         !- Solar Distribution
    30,                       !- Maximum Number of Warmup Days
    6;                        !- Minimum Number of Warmup Days

SurfaceConvectionAlgorithm:Inside,
    TARP;                     !- Algorithm

SurfaceConvectionAlgorithm:Outside,
    DOE-2;                    !- Algorithm

HeatBalanceAlgorithm,
    ConductionTransferFunction;    !- Algorithm

Timestep,
    4;                        !- Number of Timesteps per Hour

ConvergenceLimits,
    0,                        !- Minimum System Timestep
    50,                       !- Maximum HVAC Iterations
    10,                       !- Minimum Plant Iterations
    50;                       !- Maximum Plant Iterations

Site:Location,
    SINGAPORE,                !- Name
    1.37,                     !- Latitude
    103.98,                   !- Longitude
    8,                        !- Time Zone
    16;                       !- Elevation

SizingPeriod:DesignDay,
    SINGAPORE Ann Clg .4% Condns DB=>MWB,    !- Name
    6,                        !- Month
    21,                       !- Day of Month
    SummerDesignDay,          !- Day Type
    33.2,                     !- Maximum DryBulb Temperature
    5.5,                      !- Daily DryBulb Temperature Range
    DefaultMultipliers,       !- DryBulb Temperature Range Modifier Type
    ,                         !- DryBulb Temperature Range Modifier Day Schedule Name
    Wetbulb,                  !- Humidity Condition Type
    26.4,                     !- Wetbulb or DewPoint at Maximum DryBulb
    ,                         !- Humidity Condition Day Schedule Name
    ,                         !- Humidity Ratio at Maximum DryBulb
    ,                         !- Enthalpy at Maximum DryBulb
    ,                         !- Daily WetBulb Temperature Range
    101133,                   !- Barometric Pressure
    4.1,                      !- Wind Speed
    30,                       !- Wind Direction
    No,                       !- Rain Indicator
    No,                       !- Snow Indicator
    No,                       !- Daylight Saving Time Indicator
    ASHRAETau,                !- Solar Model Indicator
    ,                         !- Beam Solar Day Schedule Name
    ,                         !- Diffuse Solar Day Schedule Name
    0.494,                    !- ASHRAE Clear Sky Optical Depth for Beam Irradiance taub
    2.03;                     !- ASHRAE Clear Sky Optical Depth for Diffuse Irradiance taud

SizingPeriod:DesignDay,
    SINGAPORE Ann Clg .4% Condns DP=>MDB,    !- Name
    6,                        !- Month
    21,                       !- Day of Month
    SummerDesignDay,          !- Day Type
    29.5,                     !- Maximum DryBulb Temperature
    5.5,                      !- Daily DryBulb Temperature Range
    DefaultMultipliers,       !- DryBulb Temperature Range Modifier Type
    ,                         !- DryBulb Temperature Range Modifier Day Schedule Name
    Dewpoint,                 !- Humidity Condition Type
    27,                       !- Wetbulb or DewPoint at Maximum DryBulb
    ,                         !- Humidity Condition Day Schedule Name
    ,                         !- Humidity Ratio at Maximum DryBulb
    ,                         !- Enthalpy at Maximum DryBulb
    ,                         !- Daily WetBulb Temperature Range
    101133,                   !- Barometric Pressure
    4.1,                      !- Wind Speed
    30,                       !- Wind Direction
    No,                       !- Rain Indicator
    No,                       !- Snow Indicator
    No,                       !- Daylight Saving Time Indicator
    ASHRAETau,                !- Solar Model Indicator
    ,                         !- Beam Solar Day Schedule Name
    ,                         !- Diffuse Solar Day Schedule Name
    0.494,                    !- ASHRAE Clear Sky Optical Depth for Beam Irradiance taub
    2.03;                     !- ASHRAE Clear Sky Optical Depth for Diffuse Irradiance taud

SizingPeriod:DesignDay,
    SINGAPORE Ann Clg .4% Condns Enth=>MDB,    !- Name
    6,                        !- Month
    21,                       !- Day of Month
    SummerDesignDay,          !- Day Type
    30.9,                     !- Maximum DryBulb Temperature
    5.5,                      !- Daily DryBulb Temperature Range
    DefaultMultipliers,       !- DryBulb Temperature Range Modifier Type
    ,                         !- DryBulb Temperature Range Modifier Day Schedule Name
    Enthalpy,                 !- Humidity Condition Type
    ,                         !- Wetbulb or DewPoint at Maximum DryBulb
    ,                         !- Humidity Condition Day Schedule Name
    ,                         !- Humidity Ratio at Maximum DryBulb
    88500,                    !- Enthalpy at Maximum DryBulb
    ,                         !- Daily WetBulb Temperature Range
    101133,                   !- Barometric Pressure
    4.1,                      !- Wind Speed
    30,                       !- Wind Direction
    No,                       !- Rain Indicator
    No,                       !- Snow Indicator
    No,                       !- Daylight Saving Time Indicator
    ASHRAETau,                !- Solar Model Indicator
    ,                         !- Beam Solar Day Schedule Name
    ,                         !- Diffuse Solar Day Schedule Name
    0.494,                    !- ASHRAE Clear Sky Optical Depth for Beam Irradiance taub
    2.03;                     !- ASHRAE Clear Sky Optical Depth for Diffuse Irradiance taud

SizingPeriod:DesignDay,
    SINGAPORE Ann Clg .4% Condns WB=>MDB,    !- Name
    6,                        !- Month
    21,                       !- Day of Month
    SummerDesignDay,          !- Day Type
    30.7,                     !- Maximum DryBulb Temperature
    5.5,                      !- Daily DryBulb Temperature Range
    DefaultMultipliers,       !- DryBulb Temperature Range Modifier Type
    ,                         !- DryBulb Temperature Range Modifier Day Schedule Name
    Wetbulb,                  !- Humidity Condition Type
    27.7,                     !- Wetbulb or DewPoint at Maximum DryBulb
    ,                         !- Humidity Condition Day Schedule Name
    ,                         !- Humidity Ratio at Maximum DryBulb
    ,                         !- Enthalpy at Maximum DryBulb
    ,                         !- Daily WetBulb Temperature Range
    101133,                   !- Barometric Pressure
    4.1,                      !- Wind Speed
    30,                       !- Wind Direction
    No,                       !- Rain Indicator
    No,                       !- Snow Indicator
    No,                       !- Daylight Saving Time Indicator
    ASHRAETau,                !- Solar Model Indicator
    ,                         !- Beam Solar Day Schedule Name
    ,                         !- Diffuse Solar Day Schedule Name
    0.494,                    !- ASHRAE Clear Sky Optical Depth for Beam Irradiance taub
    2.03;                     !- ASHRAE Clear Sky Optical Depth for Diffuse Irradiance taud

SizingPeriod:DesignDay,
    SINGAPORE Ann Htg 99.6% Condns DB,    !- Name
    12,                       !- Month
    21,                       !- Day of Month
    WinterDesignDay,          !- Day Type
    23,                       !- Maximum DryBulb Temperature
    0,                        !- Daily DryBulb Temperature Range
    DefaultMultipliers,       !- DryBulb Temperature Range Modifier Type
    ,                         !- DryBulb Temperature Range Modifier Day Schedule Name
    Wetbulb,                  !- Humidity Condition Type
    23,                       !- Wetbulb or DewPoint at Maximum DryBulb
    ,                         !- Humidity Condition Day Schedule Name
    ,                         !- Humidity Ratio at Maximum DryBulb
    ,                         !- Enthalpy at Maximum DryBulb
    ,                         !- Daily WetBulb Temperature Range
    101133,                   !- Barometric Pressure
    2,                        !- Wind Speed
    320,                      !- Wind Direction
    No,                       !- Rain Indicator
    No,                       !- Snow Indicator
    No,                       !- Daylight Saving Time Indicator
    ASHRAEClearSky,           !- Solar Model Indicator
    ,                         !- Beam Solar Day Schedule Name
    ,                         !- Diffuse Solar Day Schedule Name
    ,                         !- ASHRAE Clear Sky Optical Depth for Beam Irradiance taub
    ,                         !- ASHRAE Clear Sky Optical Depth for Diffuse Irradiance taud
    0;                        !- Sky Clearness

SizingPeriod:DesignDay,
    SINGAPORE Ann Htg Wind 99.6% Condns WS=>MCDB,    !- Name
    12,                       !- Month
    21,                       !- Day of Month
    WinterDesignDay,          !- Day Type
    28,                       !- Maximum DryBulb Temperature
    0,                        !- Daily DryBulb Temperature Range
    DefaultMultipliers,       !- DryBulb Temperature Range Modifier Type
    ,                         !- DryBulb Temperature Range Modifier Day Schedule Name
    Wetbulb,                  !- Humidity Condition Type
    28,                       !- Wetbulb or DewPoint at Maximum DryBulb
    ,                         !- Humidity Condition Day Schedule Name
    ,                         !- Humidity Ratio at Maximum DryBulb
    ,                         !- Enthalpy at Maximum DryBulb
    ,                         !- Daily WetBulb Temperature Range
    101133,                   !- Barometric Pressure
    8.3,                      !- Wind Speed
    320,                      !- Wind Direction
    No,                       !- Rain Indicator
    No,                       !- Snow Indicator
    No,                       !- Daylight Saving Time Indicator
    ASHRAEClearSky,           !- Solar Model Indicator
    ,                         !- Beam Solar Day Schedule Name
    ,                         !- Diffuse Solar Day Schedule Name
    ,                         !- ASHRAE Clear Sky Optical Depth for Beam Irradiance taub
    ,                         !- ASHRAE Clear Sky Optical Depth for Diffuse Irradiance taud
    0;                        !- Sky Clearness

SizingPeriod:DesignDay,
    SINGAPORE Ann Hum_n 99.6% Condns DP=>MCDB,    !- Name
    12,                       !- Month
    21,                       !- Day of Month
    WinterDesignDay,          !- Day Type
    28.4,                     !- Maximum DryBulb Temperature
    0,                        !- Daily DryBulb Temperature Range
    DefaultMultipliers,       !- DryBulb Temperature Range Modifier Type
    ,                         !- DryBulb Temperature Range Modifier Day Schedule Name
    Dewpoint,                 !- Humidity Condition Type
    20.9,                     !- Wetbulb or DewPoint at Maximum DryBulb
    ,                         !- Humidity Condition Day Schedule Name
    ,                         !- Humidity Ratio at Maximum DryBulb
    ,                         !- Enthalpy at Maximum DryBulb
    ,                         !- Daily WetBulb Temperature Range
    101133,                   !- Barometric Pressure
    2,                        !- Wind Speed
    320,                      !- Wind Direction
    No,                       !- Rain Indicator
    No,                       !- Snow Indicator
    No,                       !- Daylight Saving Time Indicator
    ASHRAEClearSky,           !- Solar Model Indicator
    ,                         !- Beam Solar Day Schedule Name
    ,                         !- Diffuse Solar Day Schedule Name
    ,                         !- ASHRAE Clear Sky Optical Depth for Beam Irradiance taub
    ,                         !- ASHRAE Clear Sky Optical Depth for Diffuse Irradiance taud
    0;                        !- Sky Clearness

RunPeriod,
    WinterSeasonDay,          !- Name
    1,                        !- Begin Month
    12,                       !- Begin Day of Month
    ,                         !- Begin Year
    1,                        !- End Month
    14,                       !- End Day of Month
    ,                         !- End Year
    Tuesday,                  !- Day of Week for Start Day
    Yes,                      !- Use Weather File Holidays and Special Days
    Yes,                      !- Use Weather File Daylight Saving Period
    No,                       !- Apply Weekend Holiday Rule
    Yes,                      !- Use Weather File Rain Indicators
    Yes;                      !- Use Weather File Snow Indicators

Site:GroundTemperature:BuildingSurface,
    20.03,                    !- January Ground Temperature
    20.03,                    !- February Ground Temperature
    20.13,                    !- March Ground Temperature
    20.3,                     !- April Ground Temperature
    20.43,                    !- May Ground Temperature
    20.52,                    !- June Ground Temperature
    20.62,                    !- July Ground Temperature
    20.77,                    !- August Ground Temperature
    20.78,                    !- September Ground Temperature
    20.55,                    !- October Ground Temperature
    20.44,                    !- November Ground Temperature
    20.2;                     !- December Ground Temperature

Site:GroundTemperature:Shallow,
    20.03,                    !- January Surface Ground Temperature
    20.03,                    !- February Surface Ground Temperature
    20.13,                    !- March Surface Ground Temperature
    20.3,                     !- April Surface Ground Temperature
    20.43,                    !- May Surface Ground Temperature
    20.52,                    !- June Surface Ground Temperature
    20.62,                    !- July Surface Ground Temperature
    20.77,                    !- August Surface Ground Temperature
    20.78,                    !- September Surface Ground Temperature
    20.55,                    !- October Surface Ground Temperature
    20.44,                    !- November Surface Ground Temperature
    20.2;                     !- December Surface Ground Temperature

Site:GroundTemperature:Deep,
    16.1,                     !- January Deep Ground Temperature
    16.1,                     !- February Deep Ground Temperature
    16.1,                     !- March Deep Ground Temperature
    16.1,                     !- April Deep Ground Temperature
    16.1,                     !- May Deep Ground Temperature
    16.1,                     !- June Deep Ground Temperature
    16.1,                     !- July Deep Ground Temperature
    16.1,                     !- August Deep Ground Temperature
    16.1,                     !- September Deep Ground Temperature
    16.1,                     !- October Deep Ground Temperature
    16.1,                     !- November Deep Ground Temperature
    16.1;                     !- December Deep Ground Temperature

ScheduleTypeLimits,
    Any Number;               !- Name

ScheduleTypeLimits,
    Control Type,             !- Name
    0,                        !- Lower Limit Value
    4,                        !- Upper Limit Value
    DISCRETE;                 !- Numeric Type

ScheduleTypeLimits,
    Temperature,              !- Name
    -60,                      !- Lower Limit Value
    200,                      !- Upper Limit Value
    CONTINUOUS,               !- Numeric Type
    Temperature;              !- Unit Type

ScheduleTypeLimits,
    Relative Humidity,        !- Name
    0,                        !- Lower Limit Value
    100,                      !- Upper Limit Value
    CONTINUOUS;               !- Numeric Type

ScheduleTypeLimits,
    Fraction,                 !- Name
    0,                        !- Lower Limit Value
    1,                        !- Upper Limit Value
    CONTINUOUS;               !- Numeric Type

Schedule:Compact,
    OAFractionSched,          !- Name
    Fraction,                 !- Schedule Type Limits Name
    Through: 12/31,           !- Field 1
    For: AllDays,             !- Field 2
    Until: 7:00,              !- Field 3
    0.00,                     !- Field 4
    Until: 18:00,             !- Field 5
    0.00,                     !- Field 6
    Until: 24:00,             !- Field 7
    0.00;                     !- Field 8

Schedule:Compact,
    ALWAYS ON,                !- Name
    Fraction,                 !- Schedule Type Limits Name
    Through: 12/31,           !- Field 1
    For: AllDays,             !- Field 2
    Until: 24:00,             !- Field 3
    1.0;                      !- Field 4

Schedule:Compact,
    ALWAYS OFF,               !- Name
    Fraction,                 !- Schedule Type Limits Name
    Through: 12/31,           !- Field 1
    For: AllDays,             !- Field 2
    Until: 24:00,             !- Field 3
    .0;                       !- Field 4

SCHEDULE:CONSTANT,
    data_hall_1a_acu_1 air loop supply air temperature schedule,    !- Name
    Any Number,               !- Schedule Type Limits Name
    25;                       !- Hourly Value

SCHEDULE:CONSTANT,
    Data Hall 1A ite-1 operation schedule,    !- Name
    Any Number,               !- Schedule Type Limits Name
    1;                        !- Hourly Value

SCHEDULE:CONSTANT,
    Data Hall 1A ite-1 cpu schedule,    !- Name
    Any Number,               !- Schedule Type Limits Name
    1;                        !- Hourly Value

SCHEDULE:CONSTANT,
    Data Hall 1A heating setpoint schedule,    !- Name
    Temperature,              !- Schedule Type Limits Name
    15;                       !- Hourly Value

SCHEDULE:CONSTANT,
    Data Hall 1A cooling setpoint schedule,    !- Name
    Temperature,              !- Schedule Type Limits Name
    35;                       !- Hourly Value

SCHEDULE:CONSTANT,
    Data Hall 1A control type schedule,    !- Name
    Any Number,               !- Schedule Type Limits Name
    4;                        !- Hourly Value

SCHEDULE:CONSTANT,
    chilled water loop exit temperature setpoint schedule,    !- Name
    Temperature,              !- Schedule Type Limits Name
    16;                       !- Hourly Value

SCHEDULE:CONSTANT,
    chiller 1 condenser water loop exit temperature setpoint schedule,    !- Name
    Temperature,              !- Schedule Type Limits Name
    29;                       !- Hourly Value

MATERIAL,
    1/2IN Gypsum,             !- Name
    Smooth,                   !- Roughness
    0.0127,                   !- Thickness
    0.16,                     !- Conductivity
    800,                      !- Density
    1090,                     !- Specific Heat
    0.9,                      !- Thermal Absorptance
    0.9,                      !- Solar Absorptance
    0.7;                      !- Visible Absorptance

MATERIAL,
    C19 - 2 IN LIGHT WEIGHT CONCRETE,    !- Name
    MediumRough,              !- Roughness
    0.0508,                   !- Thickness
    0.1298912,                !- Conductivity
    480.5539,                 !- Density
    836.8,                    !- Specific Heat
    0.9,                      !- Thermal Absorptance
    0.9,                      !- Solar Absorptance
    0.7;                      !- Visible Absorptance

MATERIAL,
    E1 - 3 / 4 IN PLASTER OR GYP BOARD,    !- Name
    Smooth,                   !- Roughness
    0.01905,                  !- Thickness
    0.7264,                   !- Conductivity
    800,                      !- Density
    1090,                     !- Specific Heat
    0.9,                      !- Thermal Absorptance
    0.9,                      !- Solar Absorptance
    0.7;                      !- Visible Absorptance

MATERIAL,
    C6 - 8 IN CLAY TILE,      !- Name
    MediumRough,              !- Roughness
    0.2032,                   !- Thickness
    0.7264,                   !- Conductivity
    1120,                     !- Density
    837,                      !- Specific Heat
    0.9,                      !- Thermal Absorptance
    0.9,                      !- Solar Absorptance
    0.7;                      !- Visible Absorptance

MATERIAL,
    8IN Concrete HW,          !- Name
    MediumRough,              !- Roughness
    0.2032,                   !- Thickness
    1.729599,                 !- Conductivity
    2242.99,                  !- Density
    836.99,                   !- Specific Heat
    0.9,                      !- Thermal Absorptance
    0.9,                      !- Solar Absorptance
    0.65;                     !- Visible Absorptance

CONSTRUCTION,
    ext-walls,                !- Name
    1/2IN Gypsum,             !- Outside Layer
    C19 - 2 IN LIGHT WEIGHT CONCRETE,    !- Layer 2
    E1 - 3 / 4 IN PLASTER OR GYP BOARD,    !- Layer 3
    C6 - 8 IN CLAY TILE;      !- Layer 4

CONSTRUCTION,
    FLOOR,                    !- Name
    8IN Concrete HW;          !- Outside Layer

CONSTRUCTION,
    ROOF,                     !- Name
    1/2IN Gypsum;             !- Outside Layer

CONSTRUCTION,
    Ceiling,                  !- Name
    8IN Concrete HW;          !- Outside Layer

GLOBALGEOMETRYRULES,
    LowerLeftCorner,          !- Starting Vertex Position
    CounterClockWise,         !- Vertex Entry Direction
    World,                    !- Coordinate System
    World,                    !- Daylighting Reference Point Coordinate System
    World;                    !- Rectangular Surface Coordinate System

ZONE,
    data hall 1a,             !- Name
    0,                        !- Direction of Relative North
    0,                        !- X Origin
    0,                        !- Y Origin
    0,                        !- Z Origin
    1,                        !- Type
    1,                        !- Multiplier
    autocalculate,            !- Ceiling Height
    autocalculate,            !- Volume
    autocalculate,            !- Floor Area
    ,                         !- Zone Inside Convection Algorithm
    ,                         !- Zone Outside Convection Algorithm
    ;                         !- Part of Total Floor Area

BUILDINGSURFACE:DETAILED,
    Data Hall 1A Wall001,     !- Name
    Wall,                     !- Surface Type
    ext-walls,                !- Construction Name
    Data Hall 1A,             !- Zone Name
    Outdoors,                 !- Outside Boundary Condition
    ,                         !- Outside Boundary Condition Object
    SunExposed,               !- Sun Exposure
    WindExposed,              !- Wind Exposure
    autocalculate,            !- View Factor to Ground
    4,                        !- Number of Vertices
    0.0,                      !- Vertex 1 Xcoordinate
    0.0,                      !- Vertex 1 Ycoordinate
    4.0,                      !- Vertex 1 Zcoordinate
    0.0,                      !- Vertex 2 Xcoordinate
    0.0,                      !- Vertex 2 Ycoordinate
    0.0,                      !- Vertex 2 Zcoordinate
    12.6,                     !- Vertex 3 Xcoordinate
    0.0,                      !- Vertex 3 Ycoordinate
    0.0,                      !- Vertex 3 Zcoordinate
    12.6,                     !- Vertex 4 Xcoordinate
    0.0,                      !- Vertex 4 Ycoordinate
    4.0;                      !- Vertex 4 Zcoordinate

BUILDINGSURFACE:DETAILED,
    Data Hall 1A Wall002,     !- Name
    Wall,                     !- Surface Type
    ext-walls,                !- Construction Name
    Data Hall 1A,             !- Zone Name
    Outdoors,                 !- Outside Boundary Condition
    ,                         !- Outside Boundary Condition Object
    SunExposed,               !- Sun Exposure
    WindExposed,              !- Wind Exposure
    autocalculate,            !- View Factor to Ground
    4,                        !- Number of Vertices
    12.6,                     !- Vertex 1 Xcoordinate
    0.0,                      !- Vertex 1 Ycoordinate
    4.0,                      !- Vertex 1 Zcoordinate
    12.6,                     !- Vertex 2 Xcoordinate
    0.0,                      !- Vertex 2 Ycoordinate
    0.0,                      !- Vertex 2 Zcoordinate
    12.6,                     !- Vertex 3 Xcoordinate
    6.0,                      !- Vertex 3 Ycoordinate
    0.0,                      !- Vertex 3 Zcoordinate
    12.6,                     !- Vertex 4 Xcoordinate
    6.0,                      !- Vertex 4 Ycoordinate
    4.0;                      !- Vertex 4 Zcoordinate

BUILDINGSURFACE:DETAILED,
    Data Hall 1A Wall003,     !- Name
    Wall,                     !- Surface Type
    ext-walls,                !- Construction Name
    Data Hall 1A,             !- Zone Name
    Outdoors,                 !- Outside Boundary Condition
    ,                         !- Outside Boundary Condition Object
    SunExposed,               !- Sun Exposure
    WindExposed,              !- Wind Exposure
    autocalculate,            !- View Factor to Ground
    4,                        !- Number of Vertices
    12.6,                     !- Vertex 1 Xcoordinate
    6.0,                      !- Vertex 1 Ycoordinate
    4.0,                      !- Vertex 1 Zcoordinate
    12.6,                     !- Vertex 2 Xcoordinate
    6.0,                      !- Vertex 2 Ycoordinate
    0.0,                      !- Vertex 2 Zcoordinate
    0.0,                      !- Vertex 3 Xcoordinate
    6.0,                      !- Vertex 3 Ycoordinate
    0.0,                      !- Vertex 3 Zcoordinate
    0.0,                      !- Vertex 4 Xcoordinate
    6.0,                      !- Vertex 4 Ycoordinate
    4.0;                      !- Vertex 4 Zcoordinate

BUILDINGSURFACE:DETAILED,
    Data Hall 1A Wall004,     !- Name
    Wall,                     !- Surface Type
    ext-walls,                !- Construction Name
    Data Hall 1A,             !- Zone Name
    Outdoors,                 !- Outside Boundary Condition
    ,                         !- Outside Boundary Condition Object
    SunExposed,               !- Sun Exposure
    WindExposed,              !- Wind Exposure
    autocalculate,            !- View Factor to Ground
    4,                        !- Number of Vertices
    0.0,                      !- Vertex 1 Xcoordinate
    6.0,                      !- Vertex 1 Ycoordinate
    4.0,                      !- Vertex 1 Zcoordinate
    0.0,                      !- Vertex 2 Xcoordinate
    6.0,                      !- Vertex 2 Ycoordinate
    0.0,                      !- Vertex 2 Zcoordinate
    0.0,                      !- Vertex 3 Xcoordinate
    0.0,                      !- Vertex 3 Ycoordinate
    0.0,                      !- Vertex 3 Zcoordinate
    0.0,                      !- Vertex 4 Xcoordinate
    0.0,                      !- Vertex 4 Ycoordinate
    4.0;                      !- Vertex 4 Zcoordinate

BUILDINGSURFACE:DETAILED,
    Data Hall 1A Floor,       !- Name
    Floor,                    !- Surface Type
    FLOOR,                    !- Construction Name
    Data Hall 1A,             !- Zone Name
    Ground,                   !- Outside Boundary Condition
    ,                         !- Outside Boundary Condition Object
    NoSun,                    !- Sun Exposure
    NoWind,                   !- Wind Exposure
    autocalculate,            !- View Factor to Ground
    4,                        !- Number of Vertices
    12.6,                     !- Vertex 1 Xcoordinate
    6.0,                      !- Vertex 1 Ycoordinate
    0.0,                      !- Vertex 1 Zcoordinate
    12.6,                     !- Vertex 2 Xcoordinate
    0.0,                      !- Vertex 2 Ycoordinate
    0.0,                      !- Vertex 2 Zcoordinate
    0.0,                      !- Vertex 3 Xcoordinate
    0.0,                      !- Vertex 3 Ycoordinate
    0.0,                      !- Vertex 3 Zcoordinate
    0.0,                      !- Vertex 4 Xcoordinate
    6.0,                      !- Vertex 4 Ycoordinate
    0.0;                      !- Vertex 4 Zcoordinate

BUILDINGSURFACE:DETAILED,
    Data Hall 1A Ceiling,     !- Name
    Roof,                     !- Surface Type
    Roof,                     !- Construction Name
    Data Hall 1A,             !- Zone Name
    Outdoors,                 !- Outside Boundary Condition
    ,                         !- Outside Boundary Condition Object
    SunExposed,               !- Sun Exposure
    WindExposed,              !- Wind Exposure
    0,                        !- View Factor to Ground
    4,                        !- Number of Vertices
    0.0,                      !- Vertex 1 Xcoordinate
    0.0,                      !- Vertex 1 Ycoordinate
    4.0,                      !- Vertex 1 Zcoordinate
    12.6,                     !- Vertex 2 Xcoordinate
    0.0,                      !- Vertex 2 Ycoordinate
    4.0,                      !- Vertex 2 Zcoordinate
    12.6,                     !- Vertex 3 Xcoordinate
    6.0,                      !- Vertex 3 Ycoordinate
    4.0,                      !- Vertex 3 Zcoordinate